Version 4
SHEET 1 2600 1360
WIRE -240 -576 -320 -576
WIRE 1136 -576 1056 -576
WIRE -240 -432 -240 -496
WIRE 1136 -432 1136 -496
WIRE -320 -384 -320 -576
WIRE 1056 -384 1056 -576
WIRE -560 -288 -688 -288
WIRE -448 -288 -496 -288
WIRE 816 -288 688 -288
WIRE 928 -288 880 -288
WIRE -688 -256 -688 -288
WIRE 688 -256 688 -288
WIRE 144 -208 96 -208
WIRE 448 -208 208 -208
WIRE 1520 -208 1472 -208
WIRE 1632 -208 1584 -208
WIRE -688 -144 -688 -176
WIRE 688 -144 688 -176
WIRE -32 -32 -32 -80
WIRE 1344 -32 1344 -80
WIRE -320 64 -320 -80
WIRE -32 64 -32 32
WIRE -32 64 -320 64
WIRE 1056 64 1056 -80
WIRE 1344 64 1344 32
WIRE 1344 64 1056 64
WIRE -32 96 -32 64
WIRE 256 96 256 -32
WIRE 1344 96 1344 64
WIRE -384 144 -688 144
WIRE -112 144 -112 -80
WIRE -112 144 -320 144
WIRE 448 144 448 -208
WIRE 992 144 448 144
WIRE 1264 144 1264 -80
WIRE 1264 144 1056 144
WIRE -688 240 -688 224
FLAG -32 96 0
FLAG -688 240 0
FLAG -240 -432 0
FLAG -688 -144 0
FLAG 256 96 0
FLAG 1344 96 0
FLAG 1136 -432 0
FLAG 688 -144 0
SYMBOL sa612 -208 -240 R0
SYMATTR InstName X3
SYMBOL cap -48 -32 R0
SYMATTR InstName C1
SYMATTR Value 100n
SYMBOL cap -320 128 R90
WINDOW 0 0 32 VBottom 2
WINDOW 3 32 32 VTop 2
SYMATTR InstName C2
SYMATTR Value 1n
SYMBOL voltage -688 128 R0
WINDOW 123 24 124 Left 2
WINDOW 39 0 0 Left 2
SYMATTR InstName V1
SYMATTR Value SINE(0 500m 1000)
SYMATTR Value2 AC 300m
SYMBOL voltage -240 -592 R0
WINDOW 123 24 124 Left 2
WINDOW 39 0 0 Left 2
SYMATTR InstName V2
SYMATTR Value 5
SYMBOL cap -496 -304 R90
WINDOW 0 0 32 VBottom 2
WINDOW 3 32 32 VTop 2
SYMATTR InstName C3
SYMATTR Value 47p
SYMBOL voltage -688 -272 R0
WINDOW 123 24 124 Left 2
WINDOW 39 0 0 Left 2
SYMATTR InstName V3
SYMATTR Value SINE(0 75m 9000000)
SYMATTR Value2 AC 75m
SYMBOL cap 208 -224 R90
WINDOW 0 0 32 VBottom 2
WINDOW 3 32 32 VTop 2
SYMATTR InstName C4
SYMATTR Value 100n
SYMBOL res 240 -128 R0
SYMATTR InstName R1
SYMATTR Value 50
SYMBOL sa612 1168 -240 R0
SYMATTR InstName X1
SYMBOL cap 1328 -32 R0
SYMATTR InstName C5
SYMATTR Value 100n
SYMBOL cap 1056 128 R90
WINDOW 0 0 32 VBottom 2
WINDOW 3 32 32 VTop 2
SYMATTR InstName C6
SYMATTR Value 1n
SYMBOL voltage 1136 -592 R0
WINDOW 123 24 124 Left 2
WINDOW 39 0 0 Left 2
SYMATTR InstName V5
SYMATTR Value 5
SYMBOL cap 880 -304 R90
WINDOW 0 0 32 VBottom 2
WINDOW 3 32 32 VTop 2
SYMATTR InstName C7
SYMATTR Value 47p
SYMBOL voltage 688 -272 R0
WINDOW 123 24 124 Left 2
WINDOW 39 0 0 Left 2
SYMATTR InstName V6
SYMATTR Value SINE(0 75m 9000000)
SYMATTR Value2 AC 75m
SYMBOL cap 1584 -224 R90
WINDOW 0 0 32 VBottom 2
WINDOW 3 32 32 VTop 2
SYMATTR InstName C8
SYMATTR Value 100n
TEXT -722 272 Left 2 !.tran 0 0.002 0
