Version 4
SHEET 1 1280 680
WIRE -416 128 -496 128
WIRE -192 128 -336 128
WIRE -16 128 -128 128
WIRE 176 128 48 128
WIRE 256 128 176 128
WIRE 432 128 320 128
WIRE 496 128 432 128
WIRE 688 128 560 128
WIRE 768 128 688 128
WIRE 912 128 832 128
WIRE 1216 128 976 128
WIRE 1216 160 1216 128
WIRE -496 176 -496 128
WIRE 176 176 176 128
WIRE 432 176 432 128
WIRE 688 176 688 128
WIRE 176 288 176 240
WIRE 432 288 432 240
WIRE 688 288 688 240
WIRE 1216 288 1216 240
WIRE -496 304 -496 256
FLAG -496 304 0
FLAG 176 288 0
FLAG 432 288 0
FLAG 688 288 0
FLAG 1216 288 0
SYMBOL cap -128 112 R90
WINDOW 0 0 32 VBottom 2
WINDOW 3 32 32 VTop 2
SYMATTR InstName C1
SYMATTR Value 20p
SYMBOL cap 192 240 R180
WINDOW 0 24 56 Left 2
WINDOW 3 24 8 Left 2
SYMATTR InstName C2
SYMATTR Value 16.5p
SYMBOL cap 448 240 R180
WINDOW 0 24 56 Left 2
WINDOW 3 24 8 Left 2
SYMATTR InstName C3
SYMATTR Value 20p
SYMBOL cap 704 240 R180
WINDOW 0 24 56 Left 2
WINDOW 3 24 8 Left 2
SYMATTR InstName C4
SYMATTR Value 16.5p
SYMBOL cap 912 144 R270
WINDOW 0 32 32 VTop 2
WINDOW 3 0 32 VBottom 2
SYMATTR InstName C5
SYMATTR Value 20p
SYMBOL voltage -496 160 R0
WINDOW 123 24 124 Left 2
WINDOW 39 0 0 Left 2
SYMATTR Value2 AC 1
SYMATTR InstName V1
SYMATTR Value SINE(0 1 1)
SYMBOL res 1200 144 R0
SYMATTR InstName R1
SYMATTR Value 750
SYMBOL res -320 112 R90
WINDOW 0 0 56 VBottom 2
WINDOW 3 32 56 VTop 2
SYMATTR InstName R2
SYMATTR Value 750
SYMBOL Misc\\xtal 48 112 R90
WINDOW 0 0 32 VBottom 2
WINDOW 3 32 32 VTop 2
SYMATTR InstName C6
SYMATTR Value 5.05e-15
SYMATTR SpiceLine Rser=70 Lser=0.06189 Rpar=1e20 Cpar=5p
SYMBOL Misc\\xtal 320 112 R90
WINDOW 0 0 32 VBottom 2
WINDOW 3 32 32 VTop 2
SYMATTR InstName C7
SYMATTR Value 5.05e-15
SYMATTR SpiceLine Rser=70 Lser=0.06189 Rpar=1e20 Cpar=5p
SYMBOL Misc\\xtal 560 112 R90
WINDOW 0 0 32 VBottom 2
WINDOW 3 32 32 VTop 2
SYMATTR InstName C8
SYMATTR Value 5.05e-15
SYMATTR SpiceLine Rser=70 Lser=0.06189 Rpar=1e20 Cpar=5p
SYMBOL Misc\\xtal 832 112 R90
WINDOW 0 0 32 VBottom 2
WINDOW 3 32 32 VTop 2
SYMATTR InstName C9
SYMATTR Value 5.05e-15
SYMATTR SpiceLine Rser=70 Lser=0.06189 Rpar=1e20 Cpar=5p
TEXT -528 328 Left 2 !.ac dec 1000 7000000 10000000
